Version 4
SHEET 1 1560 680
WIRE -480 16 -496 0
WIRE -352 16 -480 16
WIRE -128 16 -112 0
WIRE -128 16 -272 16
WIRE -624 32 -624 0
WIRE 144 48 16 48
WIRE 272 48 288 32
WIRE 272 48 144 48
WIRE 16 80 16 48
WIRE 144 80 144 48
WIRE 272 80 272 48
WIRE -480 96 -480 16
WIRE -448 96 -480 96
WIRE -128 96 -128 16
WIRE -128 96 -160 96
WIRE -544 112 -576 112
WIRE -544 160 -544 112
WIRE -448 160 -544 160
WIRE -32 160 -160 160
WIRE 144 176 144 144
WIRE 272 192 272 160
WIRE -448 224 -544 224
WIRE -128 224 -160 224
WIRE -448 288 -480 288
WIRE -128 288 -160 288
WIRE -128 320 -128 288
WIRE -544 352 -544 224
WIRE -544 352 -576 352
WIRE -480 352 -480 288
WIRE -368 352 -480 352
WIRE -624 384 -624 368
WIRE -384 400 -416 400
WIRE -272 400 -288 400
WIRE -416 432 -416 400
FLAG 288 32 DB_OUT
IOPIN 288 32 Out
FLAG -128 320 0
FLAG -624 384 0
FLAG -112 0 VIN+
FLAG -496 0 VIN-
FLAG -624 272 VIN+
FLAG -272 400 VIN-
FLAG -624 128 VIN-
FLAG 16 176 VIN+
FLAG -416 432 0
FLAG 144 176 0
FLAG -624 0 DB_OUT
FLAG 272 192 0
FLAG -128 224 DB_OUT
SYMBOL Misc\\signal -256 16 M270
WINDOW 123 0 0 Left 2
WINDOW 39 0 0 Left 2
WINDOW 3 24 104 Invisible 2
SYMATTR Value SINE(0 33.94 50.15)
SYMATTR InstName V1
SYMBOL polcap 128 80 R0
SYMATTR InstName C1
SYMATTR Value 10m
SYMATTR SpiceLine Rser=0.065
SYMBOL SpecialFunctions\\LT4320-1 -304 192 R0
SYMATTR InstName U1
SYMBOL nmos -32 80 R0
WINDOW 3 56 72 Invisible 2
SYMATTR InstName M1
SYMATTR Value IPD220N06L3
SYMBOL nmos -576 32 M0
WINDOW 3 56 72 Invisible 2
SYMATTR InstName M2
SYMATTR Value IPD220N06L3
SYMBOL nmos -576 272 M0
WINDOW 3 56 72 Invisible 2
SYMATTR InstName M3
SYMATTR Value IPD220N06L3
SYMBOL nmos -288 352 R90
WINDOW 3 56 72 Invisible 2
SYMATTR InstName M4
SYMATTR Value IPD220N06L3
SYMBOL res 256 64 R0
SYMATTR InstName R1
SYMATTR Value 64
TEXT 536 -208 Left 2 !.tran 100m
TEXT 472 -360 Left 2 !.lib TIP112.lib
TEXT 432 -320 Left 2 !.model LM336Z-5.0 D(bv=5 rs=0.6 ibv=1m type=Zener)
TEXT 416 -264 Left 2 !.inc potentiometer.sub
TEXT -640 -192 Left 3 ;Input and Diode Bridge
RECTANGLE Normal 448 512 -736 -224 2
